################################################################################
# Raffaele Cheula, LCCP, Politecnico di Milano, raffaele.cheula@polimi.it
################################################################################

units(length = 'm', time = 's', quantity = 'kmol', act_energy = 'J/kmol')

################################################################################
# PHASES
################################################################################

methane_kinetics = True

site_densities = {'Rh100': 2.2239e-08,
                  'Rh110': 1.5726e-08,
                  'Rh111': 2.5680e-08,
                  'Rh211': 0.9079e-08,
                  'Rh311': 1.3411e-08,
                  'Rh331': 1.0205e-08,
                  'Rhint': 2.5680e-08}

# ------------------------------------------------------------------------------
#  GAS
# ------------------------------------------------------------------------------

if methane_kinetics is True:
    ideal_gas(name          = "gas",
              elements      = "C  O  H  N",
              species       = """H2   H2O  CO   CO2  O2   CH4  N2""",
              transport     = "Mix",
              initial_state = state(temperature = 773.15, pressure = OneAtm))

else:
    ideal_gas(name          = "gas",
              elements      = "C  O  H  N",
              species       = """H2   H2O  CO   CO2  O2   N2""",
              transport     = "Mix",
              initial_state = state(temperature = 773.15, pressure = OneAtm))

# ------------------------------------------------------------------------------
#  Rh100
# ------------------------------------------------------------------------------

ideal_interface(name     = "Rh100",
                elements = "C  O  H  N  Rh",
                species  = """Rh(100)    H(100)     CO(100)    OH(100)
                              O(100)     CO2(100)   H2O(100)   tCOOH(100)
                              cCOOH(100) HCOO(100)  C(100)     CH(100) 
                              CH2(100)   CH3(100)   OCH(100)""",
                site_density  = site_densities['Rh100'],
                phases        = "gas",
                reactions     = "Rh100-*",
                initial_state = state(temperature = 773.15, pressure = OneAtm))

if methane_kinetics is True:
    ideal_interface(name     = "Rh100-TS",
                    elements = "C  O  H  N  Rh",
                    species  = """Rh100-1    Rh100-2    Rh100-3    Rh100-4
                                  Rh100-5    Rh100-6    Rh100-7    Rh100-8
                                  Rh100-9    Rh100-10   Rh100-11   Rh100-12
                                  Rh100-13   Rh100-14   Rh100-15   Rh100-16
                                  Rh100-17   Rh100-18   Rh100-19   Rh100-20
                                  Rh100-21   Rh100-22   Rh100-23""",
                    site_density  = site_densities['Rh100'],
                    phases        = "gas") 

else:
    ideal_interface(name     = "Rh100-TS",
                    elements = "C  O  H  N  Rh",
                    species  = """Rh100-1    Rh100-2    Rh100-3    Rh100-4
                                  Rh100-5    Rh100-6    Rh100-7    Rh100-8
                                  Rh100-9    Rh100-10   Rh100-11   Rh100-12
                                  Rh100-13   Rh100-14""",
                    site_density  = site_densities['Rh100'],
                    phases        = "gas") 

# ------------------------------------------------------------------------------
#  Rh110
# ------------------------------------------------------------------------------

ideal_interface(name     = "Rh110",
                elements = "C  O  H  N  Rh",
                species  = """Rh(110)    H(110)     CO(110)    OH(110)
                              O(110)     CO2(110)   H2O(110)   tCOOH(110)
                              cCOOH(110) HCOO(110)  C(110)     CH(110) 
                              CH2(110)   CH3(110)   OCH(110)""",
                site_density  = site_densities['Rh110'],
                phases        = "gas",
                reactions     = "Rh110-*",
                initial_state = state(temperature = 773.15, pressure = OneAtm))

if methane_kinetics is True:
    ideal_interface(name     = "Rh110-TS",
                    elements = "C  O  H  N  Rh",
                    species  = """Rh110-1    Rh110-2    Rh110-3    Rh110-4
                                  Rh110-5    Rh110-6    Rh110-7    Rh110-8
                                  Rh110-9    Rh110-10   Rh110-11   Rh110-12
                                  Rh110-13   Rh110-14   Rh110-15   Rh110-16
                                  Rh110-17   Rh110-18   Rh110-19   Rh110-20
                                  Rh110-21   Rh110-22   Rh110-23""",
                    site_density  = site_densities['Rh110'],
                    phases        = "gas")

else:
    ideal_interface(name     = "Rh110-TS",
                    elements = "C  O  H  N  Rh",
                    species  = """Rh110-1    Rh110-2    Rh110-3    Rh110-4
                                  Rh110-5    Rh110-6    Rh110-7    Rh110-8
                                  Rh110-9    Rh110-10   Rh110-11   Rh110-12
                                  Rh110-13   Rh110-14""",
                    site_density  = site_densities['Rh110'],
                    phases        = "gas")

# ------------------------------------------------------------------------------
#  Rh111
# ------------------------------------------------------------------------------

ideal_interface(name     = "Rh111",
                elements = "C  O  H  N  Rh",
                species  = """Rh(111)    H(111)     CO(111)    OH(111)
                              O(111)     CO2(111)   H2O(111)   tCOOH(111)
                              cCOOH(111) HCOO(111)  C(111)     CH(111) 
                              CH2(111)   CH3(111)   OCH(111)""",
                site_density  = site_densities['Rh111'],
                phases        = "gas",
                reactions     = "Rh111-*",
                initial_state = state(temperature = 773.15, pressure = OneAtm))

if methane_kinetics is True:
    ideal_interface(name     = "Rh111-TS",
                    elements = "C  O  H  N  Rh",
                    species  = """Rh111-1    Rh111-2    Rh111-3    Rh111-4
                                  Rh111-5    Rh111-6    Rh111-7    Rh111-8
                                  Rh111-9    Rh111-10   Rh111-11   Rh111-12
                                  Rh111-13   Rh111-14   Rh111-15   Rh111-16
                                  Rh111-17   Rh111-18   Rh111-19   Rh111-20
                                  Rh111-21   Rh111-22   Rh111-23""",
                    site_density  = site_densities['Rh111'],
                    phases        = "gas")

else:
    ideal_interface(name     = "Rh111-TS",
                    elements = "C  O  H  N  Rh",
                    species  = """Rh111-1    Rh111-2    Rh111-3    Rh111-4
                                  Rh111-5    Rh111-6    Rh111-7    Rh111-8
                                  Rh111-9    Rh111-10   Rh111-11   Rh111-12
                                  Rh111-13   Rh111-14""",
                    site_density  = site_densities['Rh111'],
                    phases        = "gas")

# ------------------------------------------------------------------------------
#  Rh211
# ------------------------------------------------------------------------------

ideal_interface(name     = "Rh211",
                elements = "C  O  H  N  Rh",
                species  = """Rh(211)    H(211)     CO(211)    OH(211)
                              O(211)     CO2(211)   H2O(211)   tCOOH(211)
                              cCOOH(211) HCOO(211)  C(211)     CH(211) 
                              CH2(211)   CH3(211)   OCH(211)""",
                site_density  = site_densities['Rh211'],
                phases        = "gas",
                reactions     = "Rh211-*",
                initial_state = state(temperature = 773.15, pressure = OneAtm))

if methane_kinetics is True:
    ideal_interface(name     = "Rh211-TS",
                    elements = "C  O  H  N  Rh",
                    species  = """Rh211-1    Rh211-2    Rh211-3    Rh211-4
                                  Rh211-5    Rh211-6    Rh211-7    Rh211-8
                                  Rh211-9    Rh211-10   Rh211-11   Rh211-12
                                  Rh211-13   Rh211-14   Rh211-15   Rh211-16
                                  Rh211-17   Rh211-18   Rh211-19   Rh211-20
                                  Rh211-21   Rh211-22   Rh211-23""",
                    site_density  = site_densities['Rh211'],
                    phases        = "gas")

else:
    ideal_interface(name     = "Rh211-TS",
                    elements = "C  O  H  N  Rh",
                    species  = """Rh211-1    Rh211-2    Rh211-3    Rh211-4
                                  Rh211-5    Rh211-6    Rh211-7    Rh211-8
                                  Rh211-9    Rh211-10   Rh211-11   Rh211-12
                                  Rh211-13   Rh211-14""",
                    site_density  = site_densities['Rh211'],
                    phases        = "gas")

# ------------------------------------------------------------------------------
#  Rh311
# ------------------------------------------------------------------------------

ideal_interface(name     = "Rh311",
                elements = "C  O  H  N  Rh",
                species  = """Rh(311)    H(311)     CO(311)    OH(311)
                              O(311)     CO2(311)   H2O(311)   tCOOH(311)
                              cCOOH(311) HCOO(311)  C(311)     CH(311) 
                              CH2(311)   CH3(311)   OCH(311)""",
                site_density  = site_densities['Rh311'],
                phases        = "gas",
                reactions     = "Rh311-*",
                initial_state = state(temperature = 773.15, pressure = OneAtm))

if methane_kinetics is True:
    ideal_interface(name     = "Rh311-TS",
                    elements = "C  O  H  N  Rh",
                    species  = """Rh311-1    Rh311-2    Rh311-3    Rh311-4
                                  Rh311-5    Rh311-6    Rh311-7    Rh311-8
                                  Rh311-9    Rh311-10   Rh311-11   Rh311-12
                                  Rh311-13   Rh311-14   Rh311-15   Rh311-16
                                  Rh311-17   Rh311-18   Rh311-19   Rh311-20
                                  Rh311-21   Rh311-22   Rh311-23""",
                    site_density  = site_densities['Rh311'],
                    phases        = "gas")

else:
    ideal_interface(name     = "Rh311-TS",
                    elements = "C  O  H  N  Rh",
                    species  = """Rh311-1    Rh311-2    Rh311-3    Rh311-4
                                  Rh311-5    Rh311-6    Rh311-7    Rh311-8
                                  Rh311-9    Rh311-10   Rh311-11   Rh311-12
                                  Rh311-13   Rh311-14""",
                    site_density  = site_densities['Rh311'],
                    phases        = "gas")

# ------------------------------------------------------------------------------
#  Rh331
# ------------------------------------------------------------------------------

ideal_interface(name     = "Rh331",
                elements = "C  O  H  N  Rh",
                species  = """Rh(331)    H(331)     CO(331)    OH(331)
                              O(331)     CO2(331)   H2O(331)   tCOOH(331)
                              cCOOH(331) HCOO(331)  C(331)     CH(331) 
                              CH2(331)   CH3(331)   OCH(331)""",
                site_density  = site_densities['Rh331'],
                phases        = "gas",
                reactions     = "Rh331-*",
                initial_state = state(temperature = 773.15, pressure = OneAtm))

if methane_kinetics is True:
    ideal_interface(name     = "Rh331-TS",
                    elements = "C  O  H  N  Rh",
                    species  = """Rh331-1    Rh331-2    Rh331-3    Rh331-4
                                  Rh331-5    Rh331-6    Rh331-7    Rh331-8
                                  Rh331-9    Rh331-10   Rh331-11   Rh331-12
                                  Rh331-13   Rh331-14   Rh331-15   Rh331-16
                                  Rh331-17   Rh331-18   Rh331-19   Rh331-20
                                  Rh331-21   Rh331-22   Rh331-23""",
                    site_density  = site_densities['Rh331'],
                    phases        = "gas")

else:
    ideal_interface(name     = "Rh331-TS",
                    elements = "C  O  H  N  Rh",
                    species  = """Rh331-1    Rh331-2    Rh331-3    Rh331-4
                                  Rh331-5    Rh331-6    Rh331-7    Rh331-8
                                  Rh331-9    Rh331-10   Rh331-11   Rh331-12
                                  Rh331-13   Rh331-14""",
                    site_density  = site_densities['Rh331'],
                    phases        = "gas")

# ------------------------------------------------------------------------------
#  Rhint
# ------------------------------------------------------------------------------

ideal_interface(name     = "Rhint",
                elements = "C  O  H  N  Rh",
                species  = """Rh(int)    H(int)     CO(int)    OH(int)
                              O(int)     CO2(int)   H2O(int)   tCOOH(int)
                              cCOOH(int) HCOO(int)  C(int)     CH(int) 
                              CH2(int)   CH3(int)   OCH(int)""",
                site_density  = site_densities['Rhint'],
                phases        = "gas",
                reactions     = "Rhint-*",
                initial_state = state(temperature = 773.15, pressure = OneAtm))

if methane_kinetics is True:
    ideal_interface(name     = "Rhint-TS",
                    elements = "C  O  H  N  Rh",
                    species  = """Rhint-1    Rhint-2    Rhint-3    Rhint-4
                                  Rhint-5    Rhint-6    Rhint-7    Rhint-8
                                  Rhint-9    Rhint-10   Rhint-11   Rhint-12
                                  Rhint-13   Rhint-14   Rhint-15   Rhint-16
                                  Rhint-17   Rhint-18   Rhint-19   Rhint-20
                                  Rhint-21   Rhint-22   Rhint-23""",
                    site_density  = site_densities['Rhint'],
                    phases        = "gas")

else:
    ideal_interface(name     = "Rhint-TS",
                    elements = "C  O  H  N  Rh",
                    species  = """Rhint-1    Rhint-2    Rhint-3    Rhint-4
                                  Rhint-5    Rhint-6    Rhint-7    Rhint-8
                                  Rhint-9    Rhint-10   Rhint-11   Rhint-12
                                  Rhint-13   Rhint-14""",
                    site_density  = site_densities['Rhint'],
                    phases        = "gas")

################################################################################
# GAS SPECIES THERMODYNAMICS DATA
################################################################################

H = -1.01252100E+03/2.
O = -1.00524900E+03/2.
C = -1.43440860E+04-O 
N = -1.02090000E+03/2.

species(name   = "H2",
        atoms  = {'H':2},
        thermo = (NASA([300.00, 1000.00],
                       [ 3.29812400E+00,  8.24944120E-04, -8.14301470E-07,
                        -9.47543430E-11,  4.13487200E-13, -1.01252100E+03-2*H,
                        -3.29409400E+00]),
                  NASA([1000.00, 5000.00],
                       [ 2.99142220E+00,  7.00064410E-04, -5.63382800E-08,
                        -9.23157820E-12,  1.58275200E-15, -8.35033546E+02-2*H,
                        -1.35510641E+00])),
        transport = gas_transport(geom       = 'linear',
                                  diam       = 2.92,
                                  well_depth = 38.0,
                                  polar      = 0.79,
                                  rot_relax  = 280.0))

species(name   = "H2O",
        atoms  = {'H':2, 'O':1},
        thermo = (NASA([200.00, 1000.00],
                       [ 4.19864056E+00, -2.03643410E-03,  6.52040211E-06,
                        -5.48797062E-09,  1.77197817E-12, -3.02937267E+04-2*H-O,
                        -8.49032208E-01]),
                  NASA([1000.00, 3500.00],
                       [ 3.03399249E+00,  2.17691804E-03, -1.64072518E-07,
                        -9.70419870E-11,  1.68200992E-14, -3.00042971E+04-2*H-O,
                         4.96677010E+00])),
        transport = gas_transport(geom       = 'nonlinear',
                                  diam       = 2.605,
                                  well_depth = 572.4,
                                  dipole     = 1.844,
                                  rot_relax  = 4.0))

species(name   = "CO",
        atoms  = {'C':1, 'O':1},
        thermo = (NASA([200.00, 1000.00],
                       [ 3.57953347E+00, -6.10353680E-04,  1.01681433E-06,
                         9.07005884E-10, -9.04424499E-13, -1.43440860E+04-C-O,
                         3.50840928E+00]),
                  NASA([1000.00, 3500.00],
                       [ 2.71518561E+00,  2.06252743E-03, -9.98825771E-07,
                         2.30053008E-10, -2.03647716E-14, -1.41518724E+04-C-O,
                         7.81868772E+00])),
        transport = gas_transport(geom       = 'linear',
                                  diam       = 3.65,
                                  well_depth = 98.1,
                                  polar      = 1.95,
                                  rot_relax  = 1.8))

species(name   = "CO2",
        atoms  = {'C':1, 'O':2},
        thermo = (NASA([200.00, 1000.00],
                       [ 2.35677352E+00,  8.98459677E-03, -7.12356269E-06,
                         2.45919022E-09, -1.43699548E-13, -4.83719697E+04-C-2*O,
                         9.90105222E+00]),
                  NASA([1000.00, 3500.00],
                       [ 3.85746029E+00,  4.41437026E-03, -2.21481404E-06,
                         5.23490188E-10, -4.72084164E-14, -4.87591660E+04-C-2*O,
                         2.27163806E+00])),
        transport = gas_transport(geom       = 'linear',
                                  diam       = 3.763,
                                  well_depth = 244.0,
                                  polar      = 2.65,
                                  rot_relax  = 2.1))

species(name   = "CH4",
        atoms  = {'H':4, 'C':1},
        thermo = (NASA([200.00, 1000.00],
                       [ 5.14987613E+00, -1.36709788E-02,  4.91800599E-05,
                        -4.84743026E-08,  1.66693956E-11, -1.02466476E+04-C-4*H,
                        -4.64130376E+00]),
                  NASA([1000.00, 3500.00],
                       [ 7.48514950E-02,  1.33909467E-02, -5.73285809E-06,
                         1.22292535E-09, -1.01815230E-13, -9.46834459E+03-C-4*H,
                         1.84373180E+01])),
        transport = gas_transport(geom       = 'nonlinear',
                                  diam       = 3.746,
                                  well_depth = 141.4,
                                  polar      = 2.6,
                                  rot_relax  = 13.0))

species(name   = "O2",
        atoms  = {'O':2},
        thermo = (NASA([300.00, 1000.00],
                       [ 3.21293600E+00,  1.12748610E-03, -5.75614990E-07,
                         1.31387700E-09, -8.76855390E-13, -1.00524900E+03-2*O,
                         6.03473900E+00]),
                  NASA([1000.00, 5000.00],
                       [ 3.69757685E+00,  6.13519690E-04, -1.25884200E-07,
                         1.77528100E-11, -1.13643500E-15, -1.23392966E+03-2*O,
                         3.18917125E+00])),
        transport = gas_transport(geom       = 'linear',
                                  diam       = 3.458,
                                  well_depth = 107.4,
                                  polar      = 1.6,
                                  rot_relax  = 3.8))

species(name   = "N2",
        atoms  = {'N':2},
        thermo = (NASA([300.00, 1000.00],
                       [ 3.29867700E+00,  1.40823990E-03, -3.96322180E-06,
                         5.64151480E-09, -2.44485400E-12, -1.02090000E+03-2*N,
                         3.95037200E+00]),
                  NASA([1000.00, 5000.00],
                       [ 2.92663788E+00,  1.48797700E-03, -5.68476030E-07,
                         1.00970400E-10, -6.75335090E-15, -9.22795384E+02-2*N,
                         5.98054018E+00])),
        transport = gas_transport(geom       = 'linear',
                                  diam       = 3.621,
                                  well_depth = 97.53,
                                  polar      = 1.76,
                                  rot_relax  = 4.0))

species(name   = "CH3OH",
        atoms  = {'C':1, 'H':4, 'O':1},
        thermo = (NASA([200.00, 1000.00],
                       [ 1.78970791E+00,  1.40938292E-02, -6.36500835E-06,
                         1.38171085E-09, -1.17060220E-13, -2.53748747E+04-C-O-4*H,
                         1.45023623E+01]),
                  NASA([1000.00, 3500.00],
                       [ 5.71539582E+00, -1.52309129E-02,  6.52441155E-05,
                        -7.10806889E-08,  2.61352698E-11, -2.56427656E+04-C-O-4*H,
                        -1.50409823E+00])),
        transport = gas_transport(geom       = 'nonlinear',
                                  diam       = 3.626,
                                  well_depth = 481.8,
                                  polar      = 0.0,
                                  rot_relax  = 1.0))

################################################################################
# ADSORBATES THERMODYNAMICS DATA: Rh(100)
################################################################################

species(name   = "Rh(100)",
        atoms  = {'Rh': 1},
        thermo = (NASA([300.00, 1500.00],
                       [ 0.00000000E+00,  0.00000000E+00,  0.00000000E+00,
                         0.00000000E+00,  0.00000000E+00,  0.00000000E+00,
                         0.00000000E+00])))

species(name   = "H(100)",
        atoms  = {'H': 1, 'Rh': 1},
        thermo = (NASA([200.00, 1500.00],
                       [-1.54007297E+00,  1.39511284E-02, -2.16399062E-05,
                         1.48238119E-08, -3.72866209E-12, -6.55102773E+03,
                         6.83335698E+00])))

#species(name   = "CO(100)",                                                    # CO top
#        atoms  = {'C': 1, 'O': 1, 'Rh': 1},
#        thermo = (NASA([200.00, 1500.00],
#                       [ 8.73951229E-01,  1.99999747E-02, -3.36889932E-05,
#                         2.40042484E-08, -6.17088560E-12, -1.76526462E+04,
#                        -3.18492811E+00])))

species(name   = "CO(100)",                                                     # CO bridge
        atoms  = {'C': 1, 'Rh': 1, 'O': 1},
        thermo = (NASA([200.00, 1500.00],
                       [ 1.30841242E+00,  1.86209068E-02, -3.15300004E-05,
                         2.24595919E-08, -5.76695177E-12, -1.90756509E+04,
                        -5.56464643E+00])))

species(name   = "OH(100)",
        atoms  = {'H': 1, 'Rh': 1, 'O': 1},
        thermo = (NASA([200.00, 1500.00],
                       [-1.51528534E+00,  2.61517803E-02, -3.87082641E-05,
                         2.50435118E-08, -5.98234770E-12, -3.08237708E+04,
                         5.69675968E+00])))

species(name   = "O(100)",
        atoms  = {'Rh': 1, 'O': 1},
        thermo = (NASA([200.00, 1500.00],
                       [ 5.00911093E-03,  1.68803427E-02, -3.02573914E-05,
                         2.14827340E-08, -5.43140333E-12, -2.60004404E+04,
                         2.48750358E-01])))

species(name   = "CO2(100)",
        atoms  = {'C': 1, 'Rh': 2, 'O': 2},
        thermo = (NASA([200.00, 1500.00],
                       [ 2.71622314E+00,  1.99220622E-02, -3.08638992E-05,
                         2.13497930E-08, -5.43388444E-12, -3.71843954E+04,
                        -1.04080906E+01])),
        size   = 2)

species(name   = "H2O(100)",
        atoms  = {'H': 2, 'Rh': 1, 'O': 1},
        thermo = (NASA([200.00, 1500.00],
                       [ 8.98119045E-01,  2.20450258E-02, -3.58502589E-05,
                         2.55083978E-08, -6.53299989E-12, -3.22172718E+04,
                        -3.92539024E+00])))

species(name   = "tCOOH(100)",
        atoms  = {'H': 1, 'C': 1, 'Rh': 2, 'O': 2},
        thermo = (NASA([200.00, 1500.00],
                       [-8.75014421E-01,  4.05477559E-02, -5.81945705E-05,
                         3.76573386E-08, -9.05826841E-12, -4.20531834E+04,
                         3.10789280E+00])),
        size   = 2)

species(name   = "cCOOH(100)",
        atoms  = {'H': 1, 'C': 1, 'Rh': 2, 'O': 2},
        thermo = (NASA([200.00, 1500.00],
                       [-8.28617707E-01,  3.99042866E-02, -5.57263662E-05,
                         3.51938851E-08, -8.30222303E-12, -4.14126703E+04,
                         2.83158941E+00])),
        size   = 2)

species(name   = "HCOO(100)",
        atoms  = {'H': 1, 'C': 1, 'Rh': 2, 'O': 2},
        thermo = (NASA([200.00, 1500.00],
                       [ 5.39203511E-01,  2.60515405E-02, -2.68212437E-05,
                         1.29951045E-08, -2.44006743E-12, -4.02082580E+04,
                        -1.03590006E+00])),
        size   = 2)

species(name   = "C(100)",
        atoms  = {'C': 1, 'Rh': 1},
        thermo = (NASA([200.00, 1500.00],
                       [-2.42418450E+00,  2.16230716E-02, -3.34872667E-05,
                         2.29705716E-08, -5.78371018E-12,  1.06475776E+04,
                         7.59297823E+00])))

species(name   = "CH(100)",
        atoms  = {'H': 1, 'C': 1, 'Rh': 1},
        thermo = (NASA([200.00, 1500.00],
                       [-2.24717528E+00,  2.70506777E-02, -4.03918692E-05,
                         2.78294748E-08, -7.07611200E-12,  7.80491288E+03,
                         7.15060768E+00])))

species(name   = "CH2(100)",
        atoms  = {'H': 2, 'C': 1, 'Rh': 1},
        thermo = (NASA([200.00, 1500.00],
                       [-1.11439134E+00,  2.30339076E-02, -3.20376481E-05,
                         2.19166065E-08, -5.61878725E-12,  1.34530364E+04,
                         3.80645412E+00])))

species(name   = "CH3(100)",
        atoms  = {'H': 3, 'C': 1, 'Rh': 1},
        thermo = (NASA([200.00, 1500.00],
                       [-1.34510855E+00,  3.08180990E-02, -4.16203299E-05,
                         2.72215978E-08, -6.72305115E-12,  9.73510134E+03,
                         2.98653990E+00])))

species(name   = "OCH(100)",
        atoms  = {'H': 1, 'C': 1, 'Rh': 2, 'O': 1},
        thermo = (NASA([200.00, 1500.00],
                       [-1.17673286E+00,  2.86492038E-02, -3.59474419E-05,
                         2.14845776E-08, -4.98582022E-12, -1.53521585E+04,
                         3.59322666E+00])),
        size   = 2)

################################################################################
# ADSORBATES THERMODYNAMICS DATA: Rh(110)
################################################################################

species(name   = "Rh(110)",
        atoms  = {'Rh': 1},
        thermo = (NASA([300.00, 1500.00],
                       [ 0.00000000E+00,  0.00000000E+00,  0.00000000E+00,
                         0.00000000E+00,  0.00000000E+00,  0.00000000E+00,
                         0.00000000E+00])))
                         
species(name   = "H(110)",
        atoms  = {'H': 1, 'Rh': 1},
        thermo = (NASA([200.00, 1500.00],
                       [-3.12201459E+00,  2.24160110E-02, -3.35840751E-05,
                         2.17629075E-08, -5.19381523E-12, -4.00704382E+03,
                         1.16656037E+01])))

species(name   = "CO(110)",
        atoms  = {'C': 1, 'Rh': 1, 'O': 1},
        thermo = (NASA([200.00, 1500.00],
                       [ 3.27791699E-01,  2.16942580E-02, -3.45200501E-05,
                         2.35436390E-08, -5.86111519E-12, -1.80454501E+04,
                        -9.15633813E-01])))

species(name   = "OH(110)",
        atoms  = {'H': 1, 'Rh': 1, 'O': 1},
        thermo = (NASA([200.00, 1500.00],
                       [-4.51446085E-01,  2.03718785E-02, -2.84208601E-05,
                         1.81202430E-08, -4.37065301E-12, -3.07129865E+04,
                         1.30909603E+00])))

species(name   = "O(110)",
        atoms  = {'Rh': 1, 'O': 1},
        thermo = (NASA([200.00, 1500.00],
                       [-6.39820378E-01,  1.51054298E-02, -2.38787919E-05,
                         1.69176479E-08, -4.38419734E-12, -2.43694302E+04,
                         1.51505403E+00])))
                         
species(name   = "CO2(110)",
        atoms  = {'C': 1, 'Rh': 2, 'O': 2},
        thermo = (NASA([200.00, 1500.00],
                       [ 1.34763049E+00,  2.09752419E-02, -2.40291085E-05,
                         1.31498233E-08, -2.86509233E-12, -3.97282533E+04,
                        -5.82779762E+00])),
        size   = 2)              

species(name   = "H2O(110)",
        atoms  = {'H': 2, 'Rh': 1, 'O': 1},
        thermo = (NASA([200.00, 1500.00],
                       [ 9.41195034E-01,  2.06980665E-02, -3.12615458E-05,
                         2.11220456E-08, -5.21503573E-12, -3.32539686E+04,
                        -4.26802712E+00])))

species(name   = "tCOOH(110)",
        atoms  = {'H': 1, 'C': 1, 'Rh': 2, 'O': 2},
        thermo = (NASA([200.00, 1500.00],
                       [-1.67284335E-01,  3.16364757E-02, -3.98268007E-05,
                         2.43909023E-08, -5.71144646E-12, -4.15935882E+04,
                        -3.11984682E-01])),
        size   = 2)              

species(name   = "cCOOH(110)",
        atoms  = {'H': 1, 'C': 1, 'Rh': 2, 'O': 2},
        thermo = (NASA([200.00, 1500.00],